/*--------------------------------*- C++ -*----------------------------------*\
| =========                 |                                                 |
| \\      /  F ield         | OpenFOAM: The Open Source CFD Toolbox           |
|  \\    /   O peration     | Version:  v2012                                 |
|   \\  /    A nd           | Website:  www.openfoam.com                      |
|    \\/     M anipulation  |                                                 |
\*---------------------------------------------------------------------------*/
FoamFile
{
    version     2.0;
    format      ascii;
    class       volVectorField;
    object      U;
}
// * * * * * * * * * * * * * * * * * * * * * * * * * * * * * * * * * * * * * //

dimensions      [0 1 -1 0 0 0 0];

internalField   uniform (0 0 0);

boundaryField
{
    surface_zerograd
    {
        type            zeroGradient;
    }

    bottomside
    {
        type        noSlip;
    }
   
    leftside
    {
	type       fixedValue;
	value      uniform (1 0 0);	    
    }
   
//    rightside
//    {
//        type       zeroGradient;
//    }

    frontAndBack
    {
        type            empty;
    }
}

// ************************************************************************* //
